ipss.test.plugin.core/testData/bpa/07c_mach_exc_nose_ea_fj_fk.OUT
                                                      * * * 输 入 和 初 始 化 信 息 * * *                      Date: 2011-06-27

START RUN WORKING SIZE =    0 NAME=
ENTERING ROUTINE SWINGM
     PSD-BPA暂态稳定程序
     版本号  : 4.10.11
     编译时间: 2009-02-03
CASE nf10       5
---- ----------    -    --------- --------
     INEWTS = 1--NETWORK SOLUTION USES THE Y MATRIX.
ENTERING ROUTINE TAPEWK
  POWER FLOW CASE ( NF10       ) IS BEING PROCESSED.
ENTERING ROUTINE INPUT1
  SWING CASE 07c_mach_e EXECUTED ON 2011-06-27 USING VERSION 4.10.11
  20000 BUS POWER FLOW CASE(NF10      ) EXECUTED ON 2011-06-24
INPUT DATA CARDS
LS  luopingg525.  SC-BS1  525. 1    1  10.0
LS  luopingg525.  SC-BS1  525. 1   -1  12.0
                        ***********************************************
                                             SORTED LS CARDS
LS  luopingg525.  SC-BS1  525. 1    1  10.0
LS  luopingg525.  SC-BS1  525. 1   -1  12.0
FF      1.  600.                         16              1         1
ILIM       =         25
TOLI       =  0.0100000
START TIME =       0.00
DELTA TIME =       1.00
END   TIME =     600.00
DELANG     =  0.0017450
DCITOL     = 16.0000000
DMPMLT     =  1.0000000
DTC        =  1.0000000
ISTP       =         15
BASE HZ    =      50.00
ENTERING ROUTINE INPUT1
SUBROUTINE INPUT1 HAS BEEN PROCESSED.
ENTERING ROUTINE INPUT2
*** WARNING   稳定数据中的零序数据XO\XR\LO\LO+\LM，如果潮流没有对应支路或节点，将自动删除。（DEBUG卡49列填1可显示详细提示信息）
ENTERING ROUTINE LODINP
ENTERING ROUTINE ZNOINP
SUBROUTINE INPUT2 HAS BEEN PROCESSED.
ENTERING ROUTINE INPUT3
SUBROUTINE INPUT3

*** WARNING   稳定数据中的发电机、马达，如果潮流中有功出力为0或不存在，将自动删除。（DEBUG卡48列填1可显示详细提示信息）
SUBROUTINE INPUT3 HAS BEEN PROCESSED.
*** WARNING   OGM NF
*** WARNING   该卡中的分区"NF"不存在。
*** WARNING   L     LP-H    525. TSQD-H  525.1
*** WARNING   该数据卡中的节点"LP-H     525.00"不存在。
*** WARNING   L     LP-H    525. LPBS1-S 525.1
*** WARNING   该数据卡中的节点"LP-H     525.00"不存在。
*** WARNING   L     LP-H    525. LPBS1-S 525.1
*** WARNING   该数据卡中的节点"LPBS1-S  525.00"不存在。
*** WARNING   L     LP-H    525. LPBS2-S 525.1
*** WARNING   该数据卡中的节点"LP-H     525.00"不存在。
*** WARNING   L     LP-H    525. LPBS2-S 525.1
*** WARNING   该数据卡中的节点"LPBS2-S  525.00"不存在。
*** WARNING   L     lubuge  230. TSQD-M1 230.1
*** WARNING   该数据卡中的节点"lubuge   230.00"不存在。
*** WARNING   L     lubuge  230. TSQD-M2 230.1
*** WARNING   该数据卡中的节点"lubuge   230.00"不存在。
*** WARNING   L     lubuge  230. TSQD-M2 230.1
*** WARNING   该数据卡中的节点"TSQD-M2  230.00"不存在。
*** WARNING   L     XINREN  525. K-TS1   525.1
*** WARNING   该数据卡中的节点"K-TS1    525.00"不存在。
*** WARNING   L     DUSHAN-H525. DSHC1-S 525.1
*** WARNING   该数据卡中的节点"DSHC1-S  525.00"不存在。
*** WARNING   L     DUSHAN-H525. DSHC2-S 525.1
*** WARNING   该数据卡中的节点"DSHC2-S  525.00"不存在。
*** WARNING   L     LIP-H   525. LPGL1-S 525.1
*** WARNING   该数据卡中的节点"LIP-H    525.00"不存在。
*** WARNING   L     LIP-H   525. LPGL1-S 525.1
*** WARNING   该数据卡中的节点"LPGL1-S  525.00"不存在。
*** WARNING   L     LIP-H   525. LPGL2-S 525.1
*** WARNING   该数据卡中的节点"LIP-H    525.00"不存在。
*** WARNING   L     LIP-H   525. LPGL2-S 525.1
*** WARNING   该数据卡中的节点"LPGL2-S  525.00"不存在。
*** WARNING   L     GL-H    525. GLQY1-S 525.1
*** WARNING   该数据卡中的节点"GLQY1-S  525.00"不存在。
*** WARNING   L     GL-H    525. GLQY2-S 525.1
*** WARNING   该数据卡中的节点"GLQY2-S  525.00"不存在。
*** WARNING   L     WZ-H    525. WZLOD1-S525.1
*** WARNING   该数据卡中的节点"WZLOD1-S 525.00"不存在。
*** WARNING   L     WZ-H    525. WZLOD2-S525.1
*** WARNING   该数据卡中的节点"WZLOD2-S 525.00"不存在。
*** WARNING   L     YLMM1-S 525. MMYL1-S 525.1
*** WARNING   该数据卡中的节点"YLMM1-S  525.00"不存在。
*** WARNING   L     YLMM1-S 525. MMYL1-S 525.1
*** WARNING   该数据卡中的节点"MMYL1-S  525.00"不存在。
*** WARNING   L     YLMM2-S 525. MMYL2-S 525.1
*** WARNING   该数据卡中的节点"YLMM2-S  525.00"不存在。
*** WARNING   L     YLMM2-S 525. MMYL2-S 525.1
*** WARNING   该数据卡中的节点"MMYL2-S  525.00"不存在。
*** WARNING   L     HZ-H    525. HZLOD1-S525.1
*** WARNING   该数据卡中的节点"HZLOD1-S 525.00"不存在。
*** WARNING   L     HZ-H    525. HZLOD2-S525.1
*** WARNING   该数据卡中的节点"HZLOD2-S 525.00"不存在。
ENTERING ROUTINE INITL1
ENTERING ROUTINE COMBINE_AND_MODIFY_FAULT
SUBROUTINE INITL1 HAS BEEN PROCESSED.
ENTERING ROUTINE INITL2
ENTERING ROUTINE DCINP
SUBROUTINE DCINP
SUBROUTINE I N I T L 2 HAS BEEN PROCESSED

ENTERING ROUTINE INITL3
SUBROUTINE INITL3 HAS BEEN PROCESSED.
ENTERING ROUTINE INITL4
ENTERING ROUTINE FORM_NEG_NETWORK_MATRIX
ENTERING ROUTINE FORM_ZERO_NETWORK_MATRIX
ENTERING ROUTINE LSCHK
SUBROUTINE INITL4 HAS BEEN PROCESSED.
NO DATA ERRORS HAVE BEEN FOUND IN OVERLAYS 3 OR 4.


SWING CASE: 07c_mach_e POWERFLOW CASE: nf10                * * *  计 算 过 程 信 息  * * *                     Date: 2011-06-27

ENTERING ROUTINE REDUCE
ENTERING ROUTINE REDUCE
ENTERING ROUTINE REDUCE
ENTERING ROUTINE REDUCE
计算时间达到，稳定计算完毕。
总的迭代次数为 2142


SWING CASE: 07c_mach_e POWERFLOW CASE: nf10               * * *  输 出 信 息  * * *                            Date: 2011-06-27

 
 
 * 发电机"GG1S      18.0 "输出数据列表
 
     功角        (度)              最大值 =     0.0000/    0.0          最小值 =     0.0000/    0.0          参考发电机    GG1S      18.0  
     0.0    0.0000       0.0    0.0000       1.0    0.0000       2.0    0.0000       3.0    0.0000       4.0    0.0000       5.0    0.0000       6.0    0.0000
     7.0    0.0000       8.0    0.0000       9.0    0.0000      10.0    0.0000      10.0    0.0000      11.0    0.0000      12.0    0.0000      12.0    0.0000
    13.0    0.0000      14.0    0.0000      15.0    0.0000      16.0    0.0000      17.0    0.0000      18.0    0.0000      19.0    0.0000      20.0    0.0000
    21.0    0.0000      22.0    0.0000      23.0    0.0000      24.0    0.0000      25.0    0.0000      26.0    0.0000      27.0    0.0000      28.0    0.0000
    29.0    0.0000      30.0    0.0000      31.0    0.0000      32.0    0.0000      33.0    0.0000      34.0    0.0000      35.0    0.0000      36.0    0.0000
    37.0    0.0000      38.0    0.0000      39.0    0.0000      40.0    0.0000      41.0    0.0000      42.0    0.0000      43.0    0.0000      44.0    0.0000
    45.0    0.0000      46.0    0.0000      47.0    0.0000      48.0    0.0000      49.0    0.0000      50.0    0.0000      51.0    0.0000      52.0    0.0000
    53.0    0.0000      54.0    0.0000      55.0    0.0000      56.0    0.0000      57.0    0.0000      58.0    0.0000      59.0    0.0000      60.0    0.0000
    61.0    0.0000      62.0    0.0000      63.0    0.0000      64.0    0.0000      65.0    0.0000      66.0    0.0000      67.0    0.0000      68.0    0.0000
    69.0    0.0000      70.0    0.0000      71.0    0.0000      72.0    0.0000      73.0    0.0000      74.0    0.0000      75.0    0.0000      76.0    0.0000
    77.0    0.0000      78.0    0.0000      79.0    0.0000      80.0    0.0000      81.0    0.0000      82.0    0.0000      83.0    0.0000      84.0    0.0000
    85.0    0.0000      86.0    0.0000      87.0    0.0000      88.0    0.0000      89.0    0.0000      90.0    0.0000      91.0    0.0000      92.0    0.0000
    93.0    0.0000      94.0    0.0000      95.0    0.0000      96.0    0.0000      97.0    0.0000      98.0    0.0000      99.0    0.0000     100.0    0.0000
   101.0    0.0000     102.0    0.0000     103.0    0.0000     104.0    0.0000     105.0    0.0000     106.0    0.0000     107.0    0.0000     108.0    0.0000
   109.0    0.0000     110.0    0.0000     111.0    0.0000     112.0    0.0000     113.0    0.0000     114.0    0.0000     115.0    0.0000     116.0    0.0000
   117.0    0.0000     118.0    0.0000     119.0    0.0000     120.0    0.0000     121.0    0.0000     122.0    0.0000     123.0    0.0000     124.0    0.0000
   125.0    0.0000     126.0    0.0000     127.0    0.0000     128.0    0.0000     129.0    0.0000     130.0    0.0000     131.0    0.0000     132.0    0.0000
   133.0    0.0000     134.0    0.0000     135.0    0.0000     136.0    0.0000     137.0    0.0000     138.0    0.0000     139.0    0.0000     140.0    0.0000
   141.0    0.0000     142.0    0.0000     143.0    0.0000     144.0    0.0000     145.0    0.0000     146.0    0.0000     147.0    0.0000     148.0    0.0000
   149.0    0.0000     150.0    0.0000     151.0    0.0000     152.0    0.0000     153.0    0.0000     154.0    0.0000     155.0    0.0000     156.0    0.0000
   157.0    0.0000     158.0    0.0000     159.0    0.0000     160.0    0.0000     161.0    0.0000     162.0    0.0000     163.0    0.0000     164.0    0.0000
   165.0    0.0000     166.0    0.0000     167.0    0.0000     168.0    0.0000     169.0    0.0000     170.0    0.0000     171.0    0.0000     172.0    0.0000
   173.0    0.0000     174.0    0.0000     175.0    0.0000     176.0    0.0000     177.0    0.0000     178.0    0.0000     179.0    0.0000     180.0    0.0000
   181.0    0.0000     182.0    0.0000     183.0    0.0000     184.0    0.0000     185.0    0.0000     186.0    0.0000     187.0    0.0000     188.0    0.0000
   189.0    0.0000     190.0    0.0000     191.0    0.0000     192.0    0.0000     193.0    0.0000     194.0    0.0000     195.0    0.0000     196.0    0.0000
   197.0    0.0000     198.0    0.0000     199.0    0.0000     200.0    0.0000     201.0    0.0000     202.0    0.0000     203.0    0.0000     204.0    0.0000
   205.0    0.0000     206.0    0.0000     207.0    0.0000     208.0    0.0000     209.0    0.0000     210.0    0.0000     211.0    0.0000     212.0    0.0000
   213.0    0.0000     214.0    0.0000     215.0    0.0000     216.0    0.0000     217.0    0.0000     218.0    0.0000     219.0    0.0000     220.0    0.0000
   221.0    0.0000     222.0    0.0000     223.0    0.0000     224.0    0.0000     225.0    0.0000     226.0    0.0000     227.0    0.0000     228.0    0.0000
   229.0    0.0000     230.0    0.0000     231.0    0.0000     232.0    0.0000     233.0    0.0000     234.0    0.0000     235.0    0.0000     236.0    0.0000
   237.0    0.0000     238.0    0.0000     239.0    0.0000     240.0    0.0000     241.0    0.0000     242.0    0.0000     243.0    0.0000     244.0    0.0000
   245.0    0.0000     246.0    0.0000     247.0    0.0000     248.0    0.0000     249.0    0.0000     250.0    0.0000     251.0    0.0000     252.0    0.0000
   253.0    0.0000     254.0    0.0000     255.0    0.0000     256.0    0.0000     257.0    0.0000     258.0    0.0000     259.0    0.0000     260.0    0.0000
   261.0    0.0000     262.0    0.0000     263.0    0.0000     264.0    0.0000     265.0    0.0000     266.0    0.0000     267.0    0.0000     268.0    0.0000
   269.0    0.0000     270.0    0.0000     271.0    0.0000     272.0    0.0000     273.0    0.0000     274.0    0.0000     275.0    0.0000     276.0    0.0000
   277.0    0.0000     278.0    0.0000     279.0    0.0000     280.0    0.0000     281.0    0.0000     282.0    0.0000     283.0    0.0000     284.0    0.0000
   285.0    0.0000     286.0    0.0000     287.0    0.0000     288.0    0.0000     289.0    0.0000     290.0    0.0000     291.0    0.0000     292.0    0.0000
   293.0    0.0000     294.0    0.0000     295.0    0.0000     296.0    0.0000     297.0    0.0000     298.0    0.0000     299.0    0.0000     300.0    0.0000
   301.0    0.0000     302.0    0.0000     303.0    0.0000     304.0    0.0000     305.0    0.0000     306.0    0.0000     307.0    0.0000     308.0    0.0000
   309.0    0.0000     310.0    0.0000     311.0    0.0000     312.0    0.0000     313.0    0.0000     314.0    0.0000     315.0    0.0000     316.0    0.0000
   317.0    0.0000     318.0    0.0000     319.0    0.0000     320.0    0.0000     321.0    0.0000     322.0    0.0000     323.0    0.0000     324.0    0.0000
   325.0    0.0000     326.0    0.0000     327.0    0.0000     328.0    0.0000     329.0    0.0000     330.0    0.0000     331.0    0.0000     332.0    0.0000
   333.0    0.0000     334.0    0.0000     335.0    0.0000     336.0    0.0000     337.0    0.0000     338.0    0.0000     339.0    0.0000     340.0    0.0000
   341.0    0.0000     342.0    0.0000     343.0    0.0000     344.0    0.0000     345.0    0.0000     346.0    0.0000     347.0    0.0000     348.0    0.0000
   349.0    0.0000     350.0    0.0000     351.0    0.0000     352.0    0.0000     353.0    0.0000     354.0    0.0000     355.0    0.0000     356.0    0.0000
   357.0    0.0000     358.0    0.0000     359.0    0.0000     360.0    0.0000     361.0    0.0000     362.0    0.0000     363.0    0.0000     364.0    0.0000
   365.0    0.0000     366.0    0.0000     367.0    0.0000     368.0    0.0000     369.0    0.0000     370.0    0.0000     371.0    0.0000     372.0    0.0000
   373.0    0.0000     374.0    0.0000     375.0    0.0000     376.0    0.0000     377.0    0.0000     378.0    0.0000     379.0    0.0000     380.0    0.0000
   381.0    0.0000     382.0    0.0000     383.0    0.0000     384.0    0.0000     385.0    0.0000     386.0    0.0000     387.0    0.0000     388.0    0.0000
   389.0    0.0000     390.0    0.0000     391.0    0.0000     392.0    0.0000     393.0    0.0000     394.0    0.0000     395.0    0.0000     396.0    0.0000
   397.0    0.0000     398.0    0.0000     399.0    0.0000     400.0    0.0000     401.0    0.0000     402.0    0.0000     403.0    0.0000     404.0    0.0000
   405.0    0.0000     406.0    0.0000     407.0    0.0000     408.0    0.0000     409.0    0.0000     410.0    0.0000     411.0    0.0000     412.0    0.0000
   413.0    0.0000     414.0    0.0000     415.0    0.0000     416.0    0.0000     417.0    0.0000     418.0    0.0000     419.0    0.0000     420.0    0.0000
   421.0    0.0000     422.0    0.0000     423.0    0.0000     424.0    0.0000     425.0    0.0000     426.0    0.0000     427.0    0.0000     428.0    0.0000
   429.0    0.0000     430.0    0.0000     431.0    0.0000     432.0    0.0000     433.0    0.0000     434.0    0.0000     435.0    0.0000     436.0    0.0000
   437.0    0.0000     438.0    0.0000     439.0    0.0000     440.0    0.0000     441.0    0.0000     442.0    0.0000     443.0    0.0000     444.0    0.0000
   445.0    0.0000     446.0    0.0000     447.0    0.0000     448.0    0.0000     449.0    0.0000     450.0    0.0000     451.0    0.0000     452.0    0.0000
   453.0    0.0000     454.0    0.0000     455.0    0.0000     456.0    0.0000     457.0    0.0000     458.0    0.0000     459.0    0.0000     460.0    0.0000
   461.0    0.0000     462.0    0.0000     463.0    0.0000     464.0    0.0000     465.0    0.0000     466.0    0.0000     467.0    0.0000     468.0    0.0000
   469.0    0.0000     470.0    0.0000     471.0    0.0000     472.0    0.0000     473.0    0.0000     474.0    0.0000     475.0    0.0000     476.0    0.0000
   477.0    0.0000     478.0    0.0000     479.0    0.0000     480.0    0.0000     481.0    0.0000     482.0    0.0000     483.0    0.0000     484.0    0.0000
   485.0    0.0000     486.0    0.0000     487.0    0.0000     488.0    0.0000     489.0    0.0000     490.0    0.0000     491.0    0.0000     492.0    0.0000
   493.0    0.0000     494.0    0.0000     495.0    0.0000     496.0    0.0000     497.0    0.0000     498.0    0.0000     499.0    0.0000     500.0    0.0000
   501.0    0.0000     502.0    0.0000     503.0    0.0000     504.0    0.0000     505.0    0.0000     506.0    0.0000     507.0    0.0000     508.0    0.0000
   509.0    0.0000     510.0    0.0000     511.0    0.0000     512.0    0.0000     513.0    0.0000     514.0    0.0000     515.0    0.0000     516.0    0.0000
   517.0    0.0000     518.0    0.0000     519.0    0.0000     520.0    0.0000     521.0    0.0000     522.0    0.0000     523.0    0.0000     524.0    0.0000
   525.0    0.0000     526.0    0.0000     527.0    0.0000     528.0    0.0000     529.0    0.0000     530.0    0.0000     531.0    0.0000     532.0    0.0000
   533.0    0.0000     534.0    0.0000     535.0    0.0000     536.0    0.0000     537.0    0.0000     538.0    0.0000     539.0    0.0000     540.0    0.0000
   541.0    0.0000     542.0    0.0000     543.0    0.0000     544.0    0.0000     545.0    0.0000     546.0    0.0000     547.0    0.0000     548.0    0.0000
   549.0    0.0000     550.0    0.0000     551.0    0.0000     552.0    0.0000     553.0    0.0000     554.0    0.0000     555.0    0.0000     556.0    0.0000
   557.0    0.0000     558.0    0.0000     559.0    0.0000     560.0    0.0000     561.0    0.0000     562.0    0.0000     563.0    0.0000     564.0    0.0000
   565.0    0.0000     566.0    0.0000     567.0    0.0000     568.0    0.0000     569.0    0.0000     570.0    0.0000     571.0    0.0000     572.0    0.0000
   573.0    0.0000     574.0    0.0000     575.0    0.0000     576.0    0.0000     577.0    0.0000     578.0    0.0000     579.0    0.0000     580.0    0.0000
   581.0    0.0000     582.0    0.0000     583.0    0.0000     584.0    0.0000     585.0    0.0000     586.0    0.0000     587.0    0.0000     588.0    0.0000
   589.0    0.0000     590.0    0.0000     591.0    0.0000     592.0    0.0000     593.0    0.0000     594.0    0.0000     595.0    0.0000     596.0    0.0000
   597.0    0.0000     598.0    0.0000     599.0    0.0000     600.0    0.0000
 
   速度偏差      (Hz)              最大值 =     0.7539/  593.0          最小值 =     0.0000/   10.0
     0.0    0.0000       0.0    0.0000       1.0    0.0000       2.0    0.0000       3.0    0.0000       4.0    0.0000       5.0    0.0000       6.0    0.0000
     7.0    0.0000       8.0    0.0000       9.0    0.0000      10.0    0.0000      10.0    0.0000      11.0    0.0132      12.0    0.0287      12.0    0.0287
    13.0    0.0361      14.0    0.0419      15.0    0.0465      16.0    0.0502      17.0    0.0531      18.0    0.0551      19.0    0.0562      20.0    0.0565
    21.0    0.0561      22.0    0.0551      23.0    0.0536      24.0    0.0518      25.0    0.0498      26.0    0.0478      27.0    0.0461      28.0    0.0447
    29.0    0.0438      30.0    0.0434      31.0    0.0437      32.0    0.0445      33.0    0.0458      34.0    0.0476      35.0    0.0497      36.0    0.0521
    37.0    0.0544      38.0    0.0567      39.0    0.0588      40.0    0.0604      41.0    0.0616      42.0    0.0624      43.0    0.0626      44.0    0.0623
    45.0    0.0616      46.0    0.0605      47.0    0.0591      48.0    0.0577      49.0    0.0562      50.0    0.0549      51.0    0.0538      52.0    0.0531
    53.0    0.0528      54.0    0.0528      55.0    0.0534      56.0    0.0543      57.0    0.0555      58.0    0.0570      59.0    0.0586      60.0    0.0602
    61.0    0.0617      62.0    0.0629      63.0    0.0638      64.0    0.0642      65.0    0.0641      66.0    0.0634      67.0    0.0622      68.0    0.0605
    69.0    0.0582      70.0    0.0556      71.0    0.0527      72.0    0.0496      73.0    0.0464      74.0    0.0432      75.0    0.0401      76.0    0.0373
    77.0    0.0347      78.0    0.0324      79.0    0.0304      80.0    0.0287      81.0    0.0272      82.0    0.0260      83.0    0.0248      84.0    0.0238
    85.0    0.0227      86.0    0.0216      87.0    0.0204      88.0    0.0191      89.0    0.0176      90.0    0.0160      91.0    0.0143      92.0    0.0126
    93.0    0.0109      94.0    0.0092      95.0    0.0077      96.0    0.0064      97.0    0.0053      98.0    0.0046      99.0    0.0043     100.0    0.0043
   101.0    0.0047     102.0    0.0054     103.0    0.0064     104.0    0.0077     105.0    0.0091     106.0    0.0106     107.0    0.0122     108.0    0.0137
   109.0    0.0152     110.0    0.0165     111.0    0.0176     112.0    0.0186     113.0    0.0194     114.0    0.0200     115.0    0.0205     116.0    0.0209
   117.0    0.0214     118.0    0.0218     119.0    0.0224     120.0    0.0231     121.0    0.0241     122.0    0.0252     123.0    0.0267     124.0    0.0284
   125.0    0.0303     126.0    0.0325     127.0    0.0348     128.0    0.0373     129.0    0.0399     130.0    0.0425     131.0    0.0451     132.0    0.0476
   133.0    0.0499     134.0    0.0521     135.0    0.0540     136.0    0.0557     137.0    0.0572     138.0    0.0584     139.0    0.0593     140.0    0.0601
   141.0    0.0607     142.0    0.0612     143.0    0.0617     144.0    0.0621     145.0    0.0625     146.0    0.0629     147.0    0.0634     148.0    0.0640
   149.0    0.0647     150.0    0.0654     151.0    0.0662     152.0    0.0670     153.0    0.0679     154.0    0.0687     155.0    0.0694     156.0    0.0700
   157.0    0.0704     158.0    0.0707     159.0    0.0708     160.0    0.0706     161.0    0.0703     162.0    0.0698     163.0    0.0690     164.0    0.0682
   165.0    0.0672     166.0    0.0661     167.0    0.0649     168.0    0.0637     169.0    0.0625     170.0    0.0613     171.0    0.0602     172.0    0.0591
   173.0    0.0580     174.0    0.0569     175.0    0.0559     176.0    0.0548     177.0    0.0536     178.0    0.0524     179.0    0.0511     180.0    0.0496
   181.0    0.0480     182.0    0.0462     183.0    0.0443     184.0    0.0423     185.0    0.0401     186.0    0.0378     187.0    0.0354     188.0    0.0330
   189.0    0.0306     190.0    0.0283     191.0    0.0261     192.0    0.0240     193.0    0.0221     194.0    0.0204     195.0    0.0189     196.0    0.0176
   197.0    0.0166     198.0    0.0158     199.0    0.0152     200.0    0.0149     201.0    0.0147     202.0    0.0148     203.0    0.0150     204.0    0.0155
   205.0    0.0161     206.0    0.0169     207.0    0.0179     208.0    0.0190     209.0    0.0204     210.0    0.0219     211.0    0.0237     212.0    0.0258
   213.0    0.0280     214.0    0.0305     215.0    0.0332     216.0    0.0361     217.0    0.0393     218.0    0.0426     219.0    0.0461     220.0    0.0497
   221.0    0.0534     222.0    0.0571     223.0    0.0609     224.0    0.0646     225.0    0.0683     226.0    0.0718     227.0    0.0752     228.0    0.0785
   229.0    0.0815     230.0    0.0843     231.0    0.0869     232.0    0.0892     233.0    0.0913     234.0    0.0932     235.0    0.0949     236.0    0.0963
   237.0    0.0976     238.0    0.0987     239.0    0.0996     240.0    0.1004     241.0    0.1012     242.0    0.1019     243.0    0.1025     244.0    0.1031
   245.0    0.1038     246.0    0.1044     247.0    0.1051     248.0    0.1058     249.0    0.1066     250.0    0.1074     251.0    0.1083     252.0    0.1092
   253.0    0.1102     254.0    0.1112     255.0    0.1122     256.0    0.1131     257.0    0.1141     258.0    0.1150     259.0    0.1159     260.0    0.1166
   261.0    0.1173     262.0    0.1179     263.0    0.1183     264.0    0.1186     265.0    0.1187     266.0    0.1187     267.0    0.1185     268.0    0.1181
   269.0    0.1176     270.0    0.1168     271.0    0.1159     272.0    0.1148     273.0    0.1134     274.0    0.1119     275.0    0.1102     276.0    0.1083
   277.0    0.1062     278.0    0.1040     279.0    0.1015     280.0    0.0989     281.0    0.0962     282.0    0.0933     283.0    0.0903     284.0    0.0872
   285.0    0.0841     286.0    0.0809     287.0    0.0776     288.0    0.0744     289.0    0.0712     290.0    0.0681     291.0    0.0651     292.0    0.0622
   293.0    0.0595     294.0    0.0569     295.0    0.0546     296.0    0.0524     297.0    0.0506     298.0    0.0490     299.0    0.0477     300.0    0.0467
   301.0    0.0460     302.0    0.0457     303.0    0.0457     304.0    0.0461     305.0    0.0468     306.0    0.0478     307.0    0.0493     308.0    0.0511
   309.0    0.0532     310.0    0.0558     311.0    0.0586     312.0    0.0618     313.0    0.0654     314.0    0.0692     315.0    0.0734     316.0    0.0778
   317.0    0.0824     318.0    0.0873     319.0    0.0923     320.0    0.0975     321.0    0.1028     322.0    0.1082     323.0    0.1136     324.0    0.1190
   325.0    0.1244     326.0    0.1297     327.0    0.1349     328.0    0.1399     329.0    0.1448     330.0    0.1495     331.0    0.1540     332.0    0.1582
   333.0    0.1621     334.0    0.1657     335.0    0.1690     336.0    0.1720     337.0    0.1747     338.0    0.1771     339.0    0.1791     340.0    0.1809
   341.0    0.1823     342.0    0.1835     343.0    0.1845     344.0    0.1852     345.0    0.1858     346.0    0.1862     347.0    0.1865     348.0    0.1867
   349.0    0.1869     350.0    0.1871     351.0    0.1874     352.0    0.1877     353.0    0.1881     354.0    0.1885     355.0    0.1891     356.0    0.1897
   357.0    0.1905     358.0    0.1913     359.0    0.1921     360.0    0.1929     361.0    0.1937     362.0    0.1944     363.0    0.1950     364.0    0.1955
   365.0    0.1959     366.0    0.1961     367.0    0.1962     368.0    0.1961     369.0    0.1958     370.0    0.1953     371.0    0.1947     372.0    0.1939
   373.0    0.1929     374.0    0.1919     375.0    0.1906     376.0    0.1893     377.0    0.1878     378.0    0.1862     379.0    0.1844     380.0    0.1824
   381.0    0.1802     382.0    0.1778     383.0    0.1752     384.0    0.1724     385.0    0.1693     386.0    0.1659     387.0    0.1624     388.0    0.1585
   389.0    0.1545     390.0    0.1504     391.0    0.1461     392.0    0.1418     393.0    0.1374     394.0    0.1331     395.0    0.1289     396.0    0.1249
   397.0    0.1210     398.0    0.1175     399.0    0.1143     400.0    0.1115     401.0    0.1091     402.0    0.1072     403.0    0.1057     404.0    0.1048
   405.0    0.1043     406.0    0.1045     407.0    0.1051     408.0    0.1063     409.0    0.1081     410.0    0.1105     411.0    0.1134     412.0    0.1169
   413.0    0.1209     414.0    0.1255     415.0    0.1307     416.0    0.1364     417.0    0.1426     418.0    0.1494     419.0    0.1566     420.0    0.1642
   421.0    0.1722     422.0    0.1807     423.0    0.1894     424.0    0.1984     425.0    0.2076     426.0    0.2169     427.0    0.2264     428.0    0.2359
   429.0    0.2453     430.0    0.2546     431.0    0.2637     432.0    0.2726     433.0    0.2811     434.0    0.2893     435.0    0.2970     436.0    0.3043
   437.0    0.3109     438.0    0.3170     439.0    0.3224     440.0    0.3272     441.0    0.3312     442.0    0.3346     443.0    0.3372     444.0    0.3391
   445.0    0.3404     446.0    0.3410     447.0    0.3410     448.0    0.3405     449.0    0.3396     450.0    0.3384     451.0    0.3369     452.0    0.3352
   453.0    0.3335     454.0    0.3318     455.0    0.3302     456.0    0.3289     457.0    0.3278     458.0    0.3270     459.0    0.3265     460.0    0.3264
   461.0    0.3266     462.0    0.3271     463.0    0.3278     464.0    0.3287     465.0    0.3297     466.0    0.3308     467.0    0.3319     468.0    0.3329
   469.0    0.3338     470.0    0.3346     471.0    0.3352     472.0    0.3357     473.0    0.3361     474.0    0.3364     475.0    0.3365     476.0    0.3366
   477.0    0.3367     478.0    0.3366     479.0    0.3365     480.0    0.3364     481.0    0.3361     482.0    0.3356     483.0    0.3349     484.0    0.3340
   485.0    0.3326     486.0    0.3309     487.0    0.3287     488.0    0.3260     489.0    0.3228     490.0    0.3190     491.0    0.3146     492.0    0.3098
   493.0    0.3046     494.0    0.2990     495.0    0.2931     496.0    0.2870     497.0    0.2809     498.0    0.2748     499.0    0.2689     500.0    0.2633
   501.0    0.2580     502.0    0.2532     503.0    0.2489     504.0    0.2453     505.0    0.2423     506.0    0.2401     507.0    0.2386     508.0    0.2379
   509.0    0.2381     510.0    0.2391     511.0    0.2410     512.0    0.2438     513.0    0.2476     514.0    0.2523     515.0    0.2581     516.0    0.2648
   517.0    0.2726     518.0    0.2814     519.0    0.2913     520.0    0.3022     521.0    0.3141     522.0    0.3271     523.0    0.3410     524.0    0.3558
   525.0    0.3715     526.0    0.3879     527.0    0.4050     528.0    0.4227     529.0    0.4408     530.0    0.4592     531.0    0.4779     532.0    0.4966
   533.0    0.5153     534.0    0.5337     535.0    0.5517     536.0    0.5692     537.0    0.5859     538.0    0.6018     539.0    0.6166     540.0    0.6302
   541.0    0.6424     542.0    0.6530     543.0    0.6620     544.0    0.6691     545.0    0.6744     546.0    0.6777     547.0    0.6790     548.0    0.6784
   549.0    0.6759     550.0    0.6716     551.0    0.6658     552.0    0.6587     553.0    0.6505     554.0    0.6417     555.0    0.6327     556.0    0.6238
   557.0    0.6155     558.0    0.6083     559.0    0.6025     560.0    0.5984     561.0    0.5962     562.0    0.5963     563.0    0.5984     564.0    0.6027
   565.0    0.6089     566.0    0.6167     567.0    0.6256     568.0    0.6354     569.0    0.6454     570.0    0.6553     571.0    0.6646     572.0    0.6730
   573.0    0.6802     574.0    0.6862     575.0    0.6909     576.0    0.6945     577.0    0.6971     578.0    0.6991     579.0    0.7007     580.0    0.7024
   581.0    0.7043     582.0    0.7067     583.0    0.7098     584.0    0.7137     585.0    0.7183     586.0    0.7236     587.0    0.7292     588.0    0.7349
   589.0    0.7405     590.0    0.7455     591.0    0.7496     592.0    0.7525     593.0    0.7539     594.0    0.7537     595.0    0.7518     596.0    0.7482
   597.0    0.7429     598.0    0.7361     599.0    0.7280     600.0    0.7189
 
   励磁电压      (pu)              最大值 =     3.2242/  556.0          最小值 =     1.9607/  506.0
     0.0    2.2090       0.0    2.2090       1.0    2.2090       2.0    2.2090       3.0    2.2090       4.0    2.2090       5.0    2.2090       6.0    2.2090
     7.0    2.2090       8.0    2.2090       9.0    2.2090      10.0    2.2090      10.0    2.2090      11.0    2.2115      12.0    2.2216      12.0    2.2216
    13.0    2.2387      14.0    2.2561      15.0    2.2694      16.0    2.2782      17.0    2.2835      18.0    2.2863      19.0    2.2875      20.0    2.2878
    21.0    2.2876      22.0    2.2872      23.0    2.2868      24.0    2.2864      25.0    2.2863      26.0    2.2863      27.0    2.2864      28.0    2.2868
    29.0    2.2872      30.0    2.2878      31.0    2.2885      32.0    2.2892      33.0    2.2899      34.0    2.2907      35.0    2.2914      36.0    2.2921
    37.0    2.2927      38.0    2.2933      39.0    2.2938      40.0    2.2943      41.0    2.2946      42.0    2.2949      43.0    2.2951      44.0    2.2951
    45.0    2.2951      46.0    2.2949      47.0    2.2946      48.0    2.2941      49.0    2.2935      50.0    2.2927      51.0    2.2917      52.0    2.2906
    53.0    2.2891      54.0    2.2875      55.0    2.2856      56.0    2.2835      57.0    2.2811      58.0    2.2785      59.0    2.2757      60.0    2.2726
    61.0    2.2693      62.0    2.2658      63.0    2.2621      64.0    2.2582      65.0    2.2542      66.0    2.2500      67.0    2.2457      68.0    2.2412
    69.0    2.2367      70.0    2.2321      71.0    2.2274      72.0    2.2226      73.0    2.2177      74.0    2.2128      75.0    2.2078      76.0    2.2028
    77.0    2.1978      78.0    2.1927      79.0    2.1877      80.0    2.1826      81.0    2.1776      82.0    2.1726      83.0    2.1677      84.0    2.1628
    85.0    2.1580      86.0    2.1534      87.0    2.1489      88.0    2.1445      89.0    2.1403      90.0    2.1363      91.0    2.1324      92.0    2.1288
    93.0    2.1254      94.0    2.1223      95.0    2.1193      96.0    2.1167      97.0    2.1143      98.0    2.1122      99.0    2.1103     100.0    2.1088
   101.0    2.1076     102.0    2.1067     103.0    2.1061     104.0    2.1059     105.0    2.1061     106.0    2.1066     107.0    2.1076     108.0    2.1089
   109.0    2.1107     110.0    2.1129     111.0    2.1156     112.0    2.1187     113.0    2.1222     114.0    2.1262     115.0    2.1306     116.0    2.1355
   117.0    2.1408     118.0    2.1465     119.0    2.1526     120.0    2.1591     121.0    2.1659     122.0    2.1730     123.0    2.1804     124.0    2.1881
   125.0    2.1960     126.0    2.2040     127.0    2.2123     128.0    2.2207     129.0    2.2292     130.0    2.2377     131.0    2.2463     132.0    2.2549
   133.0    2.2634     134.0    2.2718     135.0    2.2801     136.0    2.2883     137.0    2.2962     138.0    2.3040     139.0    2.3114     140.0    2.3185
   141.0    2.3252     142.0    2.3316     143.0    2.3375     144.0    2.3429     145.0    2.3478     146.0    2.3521     147.0    2.3559     148.0    2.3590
   149.0    2.3616     150.0    2.3634     151.0    2.3647     152.0    2.3652     153.0    2.3651     154.0    2.3643     155.0    2.3628     156.0    2.3606
   157.0    2.3578     158.0    2.3544     159.0    2.3503     160.0    2.3456     161.0    2.3404     162.0    2.3347     163.0    2.3284     164.0    2.3216
   165.0    2.3144     166.0    2.3069     167.0    2.2989     168.0    2.2906     169.0    2.2821     170.0    2.2733     171.0    2.2643     172.0    2.2551
   173.0    2.2458     174.0    2.2364     175.0    2.2270     176.0    2.2176     177.0    2.2083     178.0    2.1989     179.0    2.1898     180.0    2.1807
   181.0    2.1718     182.0    2.1631     183.0    2.1547     184.0    2.1465     185.0    2.1385     186.0    2.1309     187.0    2.1236     188.0    2.1166
   189.0    2.1100     190.0    2.1038     191.0    2.0980     192.0    2.0925     193.0    2.0875     194.0    2.0830     195.0    2.0789     196.0    2.0752
   197.0    2.0721     198.0    2.0695     199.0    2.0674     200.0    2.0658     201.0    2.0648     202.0    2.0644     203.0    2.0646     204.0    2.0654
   205.0    2.0669     206.0    2.0690     207.0    2.0718     208.0    2.0752     209.0    2.0794     210.0    2.0842     211.0    2.0897     212.0    2.0960
   213.0    2.1029     214.0    2.1105     215.0    2.1188     216.0    2.1278     217.0    2.1374     218.0    2.1476     219.0    2.1584     220.0    2.1697
   221.0    2.1816     222.0    2.1939     223.0    2.2067     224.0    2.2199     225.0    2.2333     226.0    2.2471     227.0    2.2610     228.0    2.2751
   229.0    2.2892     230.0    2.3033     231.0    2.3174     232.0    2.3312     233.0    2.3449     234.0    2.3582     235.0    2.3712     236.0    2.3836
   237.0    2.3956     238.0    2.4069     239.0    2.4175     240.0    2.4274     241.0    2.4365     242.0    2.4448     243.0    2.4521     244.0    2.4584
   245.0    2.4637     246.0    2.4680     247.0    2.4712     248.0    2.4733     249.0    2.4744     250.0    2.4743     251.0    2.4731     252.0    2.4707
   253.0    2.4673     254.0    2.4629     255.0    2.4573     256.0    2.4508     257.0    2.4434     258.0    2.4350     259.0    2.4257     260.0    2.4156
   261.0    2.4048     262.0    2.3934     263.0    2.3813     264.0    2.3687     265.0    2.3556     266.0    2.3421     267.0    2.3283     268.0    2.3143
   269.0    2.3001     270.0    2.2858     271.0    2.2715     272.0    2.2572     273.0    2.2430     274.0    2.2290     275.0    2.2152     276.0    2.2016
   277.0    2.1884     278.0    2.1755     279.0    2.1630     280.0    2.1510     281.0    2.1394     282.0    2.1283     283.0    2.1177     284.0    2.1076
   285.0    2.0980     286.0    2.0890     287.0    2.0806     288.0    2.0727     289.0    2.0655     290.0    2.0588     291.0    2.0528     292.0    2.0473
   293.0    2.0425     294.0    2.0384     295.0    2.0348     296.0    2.0320     297.0    2.0298     298.0    2.0283     299.0    2.0275     300.0    2.0274
   301.0    2.0281     302.0    2.0295     303.0    2.0316     304.0    2.0345     305.0    2.0383     306.0    2.0428     307.0    2.0481     308.0    2.0543
   309.0    2.0613     310.0    2.0691     311.0    2.0778     312.0    2.0873     313.0    2.0977     314.0    2.1089     315.0    2.1208     316.0    2.1336
   317.0    2.1471     318.0    2.1614     319.0    2.1763     320.0    2.1919     321.0    2.2080     322.0    2.2247     323.0    2.2419     324.0    2.2595
   325.0    2.2774     326.0    2.2955     327.0    2.3139     328.0    2.3323     329.0    2.3507     330.0    2.3690     331.0    2.3872     332.0    2.4050
   333.0    2.4224     334.0    2.4394     335.0    2.4557     336.0    2.4714     337.0    2.4863     338.0    2.5003     339.0    2.5134     340.0    2.5254
   341.0    2.5363     342.0    2.5460     343.0    2.5544     344.0    2.5616     345.0    2.5673     346.0    2.5717     347.0    2.5746     348.0    2.5760
   349.0    2.5760     350.0    2.5744     351.0    2.5715     352.0    2.5670     353.0    2.5612     354.0    2.5540     355.0    2.5454     356.0    2.5356
   357.0    2.5245     358.0    2.5124     359.0    2.4992     360.0    2.4850     361.0    2.4699     362.0    2.4541     363.0    2.4376     364.0    2.4206
   365.0    2.4031     366.0    2.3852     367.0    2.3670     368.0    2.3487     369.0    2.3303     370.0    2.3120     371.0    2.2937     372.0    2.2757
   373.0    2.2579     374.0    2.2404     375.0    2.2234     376.0    2.2068     377.0    2.1907     378.0    2.1751     379.0    2.1602     380.0    2.1459
   381.0    2.1322     382.0    2.1191     383.0    2.1068     384.0    2.0951     385.0    2.0841     386.0    2.0738     387.0    2.0643     388.0    2.0554
   389.0    2.0472     390.0    2.0397     391.0    2.0329     392.0    2.0267     393.0    2.0213     394.0    2.0165     395.0    2.0125     396.0    2.0091
   397.0    2.0064     398.0    2.0044     399.0    2.0031     400.0    2.0026     401.0    2.0028     402.0    2.0037     403.0    2.0055     404.0    2.0080
   405.0    2.0114     406.0    2.0157     407.0    2.0208     408.0    2.0269     409.0    2.0339     410.0    2.0419     411.0    2.0509     412.0    2.0609
   413.0    2.0720     414.0    2.0841     415.0    2.0972     416.0    2.1114     417.0    2.1267     418.0    2.1430     419.0    2.1603     420.0    2.1786
   421.0    2.1978     422.0    2.2180     423.0    2.2389     424.0    2.2607     425.0    2.2831     426.0    2.3061     427.0    2.3297     428.0    2.3537
   429.0    2.3780     430.0    2.4026     431.0    2.4272     432.0    2.4518     433.0    2.4762     434.0    2.5004     435.0    2.5242     436.0    2.5474
   437.0    2.5699     438.0    2.5917     439.0    2.6125     440.0    2.6322     441.0    2.6508     442.0    2.6680     443.0    2.6838     444.0    2.6981
   445.0    2.7108     446.0    2.7217     447.0    2.7308     448.0    2.7381     449.0    2.7434     450.0    2.7468     451.0    2.7481     452.0    2.7474
   453.0    2.7447     454.0    2.7399     455.0    2.7332     456.0    2.7245     457.0    2.7139     458.0    2.7014     459.0    2.6873     460.0    2.6715
   461.0    2.6541     462.0    2.6354     463.0    2.6154     464.0    2.5943     465.0    2.5722     466.0    2.5493     467.0    2.5257     468.0    2.5016
   469.0    2.4772     470.0    2.4525     471.0    2.4278     472.0    2.4032     473.0    2.3787     474.0    2.3546     475.0    2.3309     476.0    2.3078
   477.0    2.2852     478.0    2.2634     479.0    2.2422     480.0    2.2219     481.0    2.2023     482.0    2.1835     483.0    2.1656     484.0    2.1485
   485.0    2.1323     486.0    2.1168     487.0    2.1022     488.0    2.0883     489.0    2.0752     490.0    2.0628     491.0    2.0512     492.0    2.0402
   493.0    2.0300     494.0    2.0204     495.0    2.0115     496.0    2.0032     497.0    1.9956     498.0    1.9887     499.0    1.9824     500.0    1.9769
   501.0    1.9721     502.0    1.9680     503.0    1.9648     504.0    1.9625     505.0    1.9611     506.0    1.9607     507.0    1.9615     508.0    1.9633
   509.0    1.9665     510.0    1.9710     511.0    1.9769     512.0    1.9844     513.0    1.9935     514.0    2.0043     515.0    2.0168     516.0    2.0312
   517.0    2.0475     518.0    2.0657     519.0    2.0859     520.0    2.1081     521.0    2.1323     522.0    2.1584     523.0    2.1865     524.0    2.2165
   525.0    2.2483     526.0    2.2818     527.0    2.3169     528.0    2.3536     529.0    2.3916     530.0    2.4309     531.0    2.4712     532.0    2.5125
   533.0    2.5544     534.0    2.5968     535.0    2.6396     536.0    2.6825     537.0    2.7252     538.0    2.7676     539.0    2.8094     540.0    2.8505
   541.0    2.8905     542.0    2.9292     543.0    2.9664     544.0    3.0020     545.0    3.0356     546.0    3.0670     547.0    3.0961     548.0    3.1227
   549.0    3.1465     550.0    3.1674     551.0    3.1853     552.0    3.2000     553.0    3.2113     554.0    3.2191     555.0    3.2235     556.0    3.2242
   557.0    3.2213     558.0    3.2147     559.0    3.2045     560.0    3.1907     561.0    3.1733     562.0    3.1526     563.0    3.1286     564.0    3.1015
   565.0    3.0717     566.0    3.0392     567.0    3.0045     568.0    2.9678     569.0    2.9294     570.0    2.8897     571.0    2.8491     572.0    2.8078
   573.0    2.7663     574.0    2.7248     575.0    2.6836     576.0    2.6430     577.0    2.6033     578.0    2.5647     579.0    2.5272     580.0    2.4912
   581.0    2.4566     582.0    2.4236     583.0    2.3921     584.0    2.3622     585.0    2.3338     586.0    2.3070     587.0    2.2817     588.0    2.2577
   589.0    2.2351     590.0    2.2137     591.0    2.1936     592.0    2.1746     593.0    2.1566     594.0    2.1396     595.0    2.1235     596.0    2.1083
   597.0    2.0939     598.0    2.0802     599.0    2.0672     600.0    2.0549
 
 
 * 发电机"EQG001    20.0 "输出数据列表
 
     功角        (度)              最大值 =    31.4281/  596.0          最小值 =   -16.8779/  542.0          参考发电机    GG1S      18.0  
     0.0    7.1970       0.0    7.1970       1.0    7.1970       2.0    7.1970       3.0    7.1970       4.0    7.1970       5.0    7.1970       6.0    7.1970
     7.0    7.1970       8.0    7.1970       9.0    7.1970      10.0    7.1970      10.0    7.1970      11.0    7.1524      12.0    7.0136      12.0    7.0136
    13.0    6.8085      14.0    6.5759      15.0    6.3270      16.0    6.0715      17.0    5.8179      18.0    5.5742      19.0    5.3481      20.0    5.1466
    21.0    4.9758      22.0    4.8407      23.0    4.7448      24.0    4.6902      25.0    4.6770      26.0    4.7038      27.0    4.7674      28.0    4.8634
    29.0    4.9860      30.0    5.1285      31.0    5.2839      32.0    5.4448      33.0    5.6044      34.0    5.7562      35.0    5.8949      36.0    6.0163
    37.0    6.1175      38.0    6.1972      39.0    6.2553      40.0    6.2931      41.0    6.3132      42.0    6.3190      43.0    6.3145      44.0    6.3042
    45.0    6.2926      46.0    6.2840      47.0    6.2823      48.0    6.2907      49.0    6.3116      50.0    6.3467      51.0    6.3967      52.0    6.4615
    53.0    6.5404      54.0    6.6322      55.0    6.7351      56.0    6.8475      57.0    6.9675      58.0    7.0935      59.0    7.2243      60.0    7.3591
    61.0    7.4976      62.0    7.6398      63.0    7.7864      64.0    7.9382      65.0    8.0962      66.0    8.2617      67.0    8.4354      68.0    8.6181
    69.0    8.8099      70.0    9.0103      71.0    9.2182      72.0    9.4318      73.0    9.6487      74.0    9.8655      75.0   10.0788      76.0   10.2845
    77.0   10.4784      78.0   10.6564      79.0   10.8148      80.0   10.9499      81.0   11.0592      82.0   11.1406      83.0   11.1928      84.0   11.2158
    85.0   11.2100      86.0   11.1771      87.0   11.1191      88.0   11.0387      89.0   10.9392      90.0   10.8238      91.0   10.6957      92.0   10.5582
    93.0   10.4140      94.0   10.2653      95.0   10.1138      96.0    9.9606      97.0    9.8062      98.0    9.6504      99.0    9.4926     100.0    9.3318
   101.0    9.1668     102.0    8.9961     103.0    8.8185     104.0    8.6327     105.0    8.4379     106.0    8.2335     107.0    8.0195     108.0    7.7960
   109.0    7.5639     110.0    7.3242     111.0    7.0783     112.0    6.8279     113.0    6.5747     114.0    6.3205     115.0    6.0670     116.0    5.8157
   117.0    5.5679     118.0    5.3249     119.0    5.0873     120.0    4.8557     121.0    4.6306     122.0    4.4122     123.0    4.2005     124.0    3.9956
   125.0    3.7978     126.0    3.6073     127.0    3.4247     128.0    3.2507     129.0    3.0864     130.0    2.9333     131.0    2.7930     132.0    2.6674
   133.0    2.5587     134.0    2.4691     135.0    2.4008     136.0    2.3561     137.0    2.3369     138.0    2.3448     139.0    2.3814     140.0    2.4474
   141.0    2.5432     142.0    2.6687     143.0    2.8233     144.0    3.0056     145.0    3.2140     146.0    3.4465     147.0    3.7004     148.0    3.9732
   149.0    4.2620     150.0    4.5638     151.0    4.8759     152.0    5.1955     153.0    5.5202     154.0    5.8480     155.0    6.1769     156.0    6.5055
   157.0    6.8328     158.0    7.1579     159.0    7.4804     160.0    7.7999     161.0    8.1165     162.0    8.4299     163.0    8.7403     164.0    9.0474
   165.0    9.3511     166.0    9.6508     167.0    9.9460     168.0   10.2359     169.0   10.5193     170.0   10.7950     171.0   11.0616     172.0   11.3176
   173.0   11.5614     174.0   11.7917     175.0   12.0068     176.0   12.2054     177.0   12.3863     178.0   12.5486     179.0   12.6913     180.0   12.8139
   181.0   12.9157     182.0   12.9965     183.0   13.0560     184.0   13.0940     185.0   13.1103     186.0   13.1047     187.0   13.0768     188.0   13.0265
   189.0   12.9533     190.0   12.8568     191.0   12.7364     192.0   12.5917     193.0   12.4223     194.0   12.2278     195.0   12.0080     196.0   11.7629
   197.0   11.4927     198.0   11.1979     199.0   10.8793     200.0   10.5381     201.0   10.1757     202.0    9.7938     203.0    9.3944     204.0    8.9797
   205.0    8.5521     206.0    8.1139     207.0    7.6679     208.0    7.2164     209.0    6.7619     210.0    6.3068     211.0    5.8534     212.0    5.4036
   213.0    4.9594     214.0    4.5225     215.0    4.0945     216.0    3.6769     217.0    3.2711     218.0    2.8783     219.0    2.4998     220.0    2.1369
   221.0    1.7909     222.0    1.4632     223.0    1.1552     224.0    0.8684     225.0    0.6044     226.0    0.3648     227.0    0.1515     228.0   -0.0339
   229.0   -0.1897     230.0   -0.3142     231.0   -0.4057     232.0   -0.4630     233.0   -0.4847     234.0   -0.4698     235.0   -0.4175     236.0   -0.3272
   237.0   -0.1990     238.0   -0.0328     239.0    0.1707     240.0    0.4108     241.0    0.6861     242.0    0.9952     243.0    1.3363     244.0    1.7072
   245.0    2.1054     246.0    2.5285     247.0    2.9737     248.0    3.4380     249.0    3.9187     250.0    4.4126     251.0    4.9169     252.0    5.4286
   253.0    5.9450     254.0    6.4634     255.0    6.9814     256.0    7.4965     257.0    8.0067     258.0    8.5099     259.0    9.0046     260.0    9.4890
   261.0    9.9619     262.0   10.4219     263.0   10.8679     264.0   11.2990     265.0   11.7142     266.0   12.1126     267.0   12.4935     268.0   12.8558
   269.0   13.1989     270.0   13.5218     271.0   13.8238     272.0   14.1038     273.0   14.3610     274.0   14.5944     275.0   14.8031     276.0   14.9860
   277.0   15.1423     278.0   15.2711     279.0   15.3713     280.0   15.4424     281.0   15.4835     282.0   15.4939     283.0   15.4732     284.0   15.4210
   285.0   15.3368     286.0   15.2207     287.0   15.0725     288.0   14.8925     289.0   14.6809     290.0   14.4382     291.0   14.1650     292.0   13.8622
   293.0   13.5306     294.0   13.1716     295.0   12.7863     296.0   12.3763     297.0   11.9433     298.0   11.4889     299.0   11.0151     300.0   10.5240
   301.0   10.0175     302.0    9.4978     303.0    8.9672     304.0    8.4278     305.0    7.8818     306.0    7.3314     307.0    6.7786     308.0    6.2256
   309.0    5.6742     310.0    5.1264     311.0    4.5839     312.0    4.0485     313.0    3.5218     314.0    3.0054     315.0    2.5010     316.0    2.0099
   317.0    1.5337     318.0    1.0740     319.0    0.6323     320.0    0.2102     321.0   -0.1907     322.0   -0.5687     323.0   -0.9219     324.0   -1.2486
   325.0   -1.5469     326.0   -1.8148     327.0   -2.0503     328.0   -2.2515     329.0   -2.4163     330.0   -2.5429     331.0   -2.6292     332.0   -2.6735
   333.0   -2.6742     334.0   -2.6297     335.0   -2.5387     336.0   -2.4001     337.0   -2.2132     338.0   -1.9775     339.0   -1.6931     340.0   -1.3601
   341.0   -0.9795     342.0   -0.5524     343.0   -0.0807     344.0    0.4335     345.0    0.9873     346.0    1.5775     347.0    2.2004     348.0    2.8518
   349.0    3.5272     350.0    4.2217     351.0    4.9302     352.0    5.6475     353.0    6.3683     354.0    7.0873     355.0    7.7995     356.0    8.5000
   357.0    9.1843     358.0    9.8486     359.0   10.4893     360.0   11.1034     361.0   11.6886     362.0   12.2432     363.0   12.7661     364.0   13.2566
   365.0   13.7147     366.0   14.1405     367.0   14.5349     368.0   14.8987     369.0   15.2328     370.0   15.5383     371.0   15.8164     372.0   16.0680
   373.0   16.2938     374.0   16.4945     375.0   16.6705     376.0   16.8220     377.0   16.9489     378.0   17.0511     379.0   17.1283     380.0   17.1799
   381.0   17.2055     382.0   17.2046     383.0   17.1764     384.0   17.1206     385.0   17.0367     386.0   16.9240     387.0   16.7823     388.0   16.6113
   389.0   16.4107     390.0   16.1803     391.0   15.9199     392.0   15.6295     393.0   15.3091     394.0   14.9586     395.0   14.5783     396.0   14.1684
   397.0   13.7294     398.0   13.2617     399.0   12.7663     400.0   12.2439     401.0   11.6960     402.0   11.1239     403.0   10.5293     404.0    9.9143
   405.0    9.2810     406.0    8.6317     407.0    7.9692     408.0    7.2961     409.0    6.6153     410.0    5.9295     411.0    5.2417     412.0    4.5546
   413.0    3.8710     414.0    3.1936     415.0    2.5247     416.0    1.8669     417.0    1.2223     418.0    0.5930     419.0   -0.0191     420.0   -0.6121
   421.0   -1.1843     422.0   -1.7339     423.0   -2.2592     424.0   -2.7585     425.0   -3.2300     426.0   -3.6718     427.0   -4.0820     428.0   -4.4584
   429.0   -4.7988     430.0   -5.1009     431.0   -5.3622     432.0   -5.5799     433.0   -5.7515     434.0   -5.8740     435.0   -5.9447     436.0   -5.9607
   437.0   -5.9192     438.0   -5.8176     439.0   -5.6535     440.0   -5.4246     441.0   -5.1292     442.0   -4.7659     443.0   -4.3338     444.0   -3.8327
   445.0   -3.2633     446.0   -2.6267     447.0   -1.9253     448.0   -1.1621     449.0   -0.3413     450.0    0.5320     451.0    1.4519     452.0    2.4114
   453.0    3.4027     454.0    4.4175     455.0    5.4468     456.0    6.4814     457.0    7.5120     458.0    8.5294     459.0    9.5248     460.0   10.4900
   461.0   11.4178     462.0   12.3020     463.0   13.1376     464.0   13.9209     465.0   14.6497     466.0   15.3230     467.0   15.9415     468.0   16.5066
   469.0   17.0211     470.0   17.4882     471.0   17.9121     472.0   18.2970     473.0   18.6472     474.0   18.9669     475.0   19.2599     476.0   19.5294
   477.0   19.7780     478.0   20.0075     479.0   20.2192     480.0   20.4133     481.0   20.5897     482.0   20.7474     483.0   20.8850     484.0   21.0008
   485.0   21.0927     486.0   21.1583     487.0   21.1953     488.0   21.2010     489.0   21.1730     490.0   21.1087     491.0   21.0055     492.0   20.8609
   493.0   20.6726     494.0   20.4381     495.0   20.1553     496.0   19.8222     497.0   19.4368     498.0   18.9975     499.0   18.5032     500.0   17.9530
   501.0   17.3467     502.0   16.6845     503.0   15.9674     504.0   15.1968     505.0   14.3752     506.0   13.5054     507.0   12.5910     508.0   11.6363
   509.0   10.6459     510.0    9.6248     511.0    8.5783     512.0    7.5117     513.0    6.4305     514.0    5.3397     515.0    4.2442     516.0    3.1486
   517.0    2.0569     518.0    0.9726     519.0   -0.1014     520.0   -1.1624     521.0   -2.2084     522.0   -3.2378     523.0   -4.2493     524.0   -5.2414
   525.0   -6.2132     526.0   -7.1636     527.0   -8.0912     528.0   -8.9943     529.0   -9.8712     530.0  -10.7191     531.0  -11.5354     532.0  -12.3162
   533.0  -13.0574     534.0  -13.7538     535.0  -14.3998     536.0  -14.9889     537.0  -15.5138     538.0  -15.9666     539.0  -16.3388     540.0  -16.6212
   541.0  -16.8042     542.0  -16.8779     543.0  -16.8323     544.0  -16.6574     545.0  -16.3434     546.0  -15.8816     547.0  -15.2637     548.0  -14.4834
   549.0  -13.5357     550.0  -12.4183     551.0  -11.1312     552.0   -9.6778     553.0   -8.0648     554.0   -6.3026     555.0   -4.4055     556.0   -2.3919
   557.0   -0.2838     558.0    1.8933     559.0    4.1109     560.0    6.3383     561.0    8.5436     562.0   10.6947     563.0   12.7604     564.0   14.7121
   565.0   16.5243     566.0   18.1764     567.0   19.6535     568.0   20.9467     569.0   22.0538     570.0   22.9793     571.0   23.7341     572.0   24.3343
   573.0   24.8007     574.0   25.1573     575.0   25.4298     576.0   25.6441     577.0   25.8253     578.0   25.9960     579.0   26.1754     580.0   26.3786
   581.0   26.6165     582.0   26.8949     583.0   27.2156     584.0   27.5759     585.0   27.9701     586.0   28.3893     587.0   28.8229     588.0   29.2589
   589.0   29.6849     590.0   30.0885     591.0   30.4576     592.0   30.7810     593.0   31.0486     594.0   31.2510     595.0   31.3800     596.0   31.4281
   597.0   31.3884     598.0   31.2547     599.0   31.0208     600.0   30.6813
 
   速度偏差      (Hz)              最大值 =     0.9145/  558.0          最小值 =    -0.0446/  206.0
     0.0    0.0000       0.0    0.0000       1.0    0.0000       2.0    0.0000       3.0    0.0000       4.0    0.0000       5.0    0.0000       6.0    0.0000
     7.0    0.0000       8.0    0.0000       9.0    0.0000      10.0    0.0000      10.0    0.0000      11.0    0.0008      12.0    0.0026      12.0    0.0026
    13.0    0.0052      14.0    0.0081      15.0    0.0112      16.0    0.0146      17.0    0.0183      18.0    0.0222      19.0    0.0263      20.0    0.0305
    21.0    0.0348      22.0    0.0390      23.0    0.0431      24.0    0.0471      25.0    0.0508      26.0    0.0542      27.0    0.0574      28.0    0.0601
    29.0    0.0624      30.0    0.0644      31.0    0.0659      32.0    0.0670      33.0    0.0676      34.0    0.0680      35.0    0.0679      36.0    0.0676
    37.0    0.0670      38.0    0.0663      39.0    0.0653      40.0    0.0643      41.0    0.0633      42.0    0.0623      43.0    0.0614      44.0    0.0606
    45.0    0.0600      46.0    0.0596      47.0    0.0595      48.0    0.0596      49.0    0.0601      50.0    0.0608      51.0    0.0618      52.0    0.0631
    53.0    0.0647      54.0    0.0664      55.0    0.0684      56.0    0.0705      57.0    0.0727      58.0    0.0749      59.0    0.0771      60.0    0.0792
    61.0    0.0812      62.0    0.0830      63.0    0.0845      64.0    0.0857      65.0    0.0865      66.0    0.0870      67.0    0.0869      68.0    0.0865
    69.0    0.0855      70.0    0.0840      71.0    0.0820      72.0    0.0796      73.0    0.0766      74.0    0.0732      75.0    0.0694      76.0    0.0652
    77.0    0.0607      78.0    0.0559      79.0    0.0509      80.0    0.0458      81.0    0.0405      82.0    0.0353      83.0    0.0301      84.0    0.0249
    85.0    0.0200      86.0    0.0152      87.0    0.0107      88.0    0.0065      89.0    0.0026      90.0   -0.0010      91.0   -0.0042      92.0   -0.0070
    93.0   -0.0095      94.0   -0.0117      95.0   -0.0135      96.0   -0.0150      97.0   -0.0162      98.0   -0.0171      99.0   -0.0178     100.0   -0.0183
   101.0   -0.0186     102.0   -0.0188     103.0   -0.0188     104.0   -0.0187     105.0   -0.0186     106.0   -0.0184     107.0   -0.0182     108.0   -0.0179
   109.0   -0.0176     110.0   -0.0173     111.0   -0.0169     112.0   -0.0165     113.0   -0.0159     114.0   -0.0153     115.0   -0.0146     116.0   -0.0138
   117.0   -0.0128     118.0   -0.0116     119.0   -0.0102     120.0   -0.0086     121.0   -0.0067     122.0   -0.0046     123.0   -0.0023     124.0    0.0004
   125.0    0.0033     126.0    0.0065     127.0    0.0100     128.0    0.0138     129.0    0.0178     130.0    0.0221     131.0    0.0266     132.0    0.0313
   133.0    0.0361     134.0    0.0411     135.0    0.0461     136.0    0.0512     137.0    0.0563     138.0    0.0614     139.0    0.0664     140.0    0.0713
   141.0    0.0761     142.0    0.0807     143.0    0.0851     144.0    0.0893     145.0    0.0932     146.0    0.0968     147.0    0.1001     148.0    0.1031
   149.0    0.1058     150.0    0.1082     151.0    0.1102     152.0    0.1119     153.0    0.1132     154.0    0.1143     155.0    0.1151     156.0    0.1155
   157.0    0.1157     158.0    0.1157     159.0    0.1154     160.0    0.1148     161.0    0.1141     162.0    0.1131     163.0    0.1119     164.0    0.1106
   165.0    0.1091     166.0    0.1074     167.0    0.1056     168.0    0.1035     169.0    0.1014     170.0    0.0990     171.0    0.0965     172.0    0.0938
   173.0    0.0910     174.0    0.0879     175.0    0.0846     176.0    0.0812     177.0    0.0775     178.0    0.0736     179.0    0.0695     180.0    0.0652
   181.0    0.0607     182.0    0.0560     183.0    0.0511     184.0    0.0460     185.0    0.0408     186.0    0.0354     187.0    0.0300     188.0    0.0244
   189.0    0.0189     190.0    0.0133     191.0    0.0077     192.0    0.0022     193.0   -0.0032     194.0   -0.0084     195.0   -0.0134     196.0   -0.0182
   197.0   -0.0227     198.0   -0.0268     199.0   -0.0306     200.0   -0.0340     201.0   -0.0370     202.0   -0.0395     203.0   -0.0416     204.0   -0.0431
   205.0   -0.0441     206.0   -0.0446     207.0   -0.0446     208.0   -0.0440     209.0   -0.0429     210.0   -0.0412     211.0   -0.0391     212.0   -0.0364
   213.0   -0.0332     214.0   -0.0296     215.0   -0.0256     216.0   -0.0211     217.0   -0.0162     218.0   -0.0110     219.0   -0.0055     220.0    0.0004
   221.0    0.0065     222.0    0.0129     223.0    0.0195     224.0    0.0263     225.0    0.0332     226.0    0.0403     227.0    0.0475     228.0    0.0547
   229.0    0.0620     230.0    0.0692     231.0    0.0765     232.0    0.0837     233.0    0.0908     234.0    0.0979     235.0    0.1048     236.0    0.1115
   237.0    0.1180     238.0    0.1244     239.0    0.1304     240.0    0.1363     241.0    0.1418     242.0    0.1471     243.0    0.1520     244.0    0.1566
   245.0    0.1609     246.0    0.1648     247.0    0.1684     248.0    0.1716     249.0    0.1744     250.0    0.1769     251.0    0.1790     252.0    0.1807
   253.0    0.1821     254.0    0.1832     255.0    0.1840     256.0    0.1844     257.0    0.1845     258.0    0.1844     259.0    0.1839     260.0    0.1832
   261.0    0.1821     262.0    0.1808     263.0    0.1792     264.0    0.1774     265.0    0.1753     266.0    0.1728     267.0    0.1701     268.0    0.1672
   269.0    0.1639     270.0    0.1603     271.0    0.1563     272.0    0.1521     273.0    0.1475     274.0    0.1427     275.0    0.1374     276.0    0.1319
   277.0    0.1261     278.0    0.1199     279.0    0.1135     280.0    0.1067     281.0    0.0998     282.0    0.0926     283.0    0.0853     284.0    0.0778
   285.0    0.0702     286.0    0.0625     287.0    0.0548     288.0    0.0472     289.0    0.0397     290.0    0.0323     291.0    0.0251     292.0    0.0181
   293.0    0.0115     294.0    0.0052     295.0   -0.0007     296.0   -0.0062     297.0   -0.0111     298.0   -0.0155     299.0   -0.0194     300.0   -0.0226
   301.0   -0.0253     302.0   -0.0273     303.0   -0.0287     304.0   -0.0294     305.0   -0.0294     306.0   -0.0288     307.0   -0.0276     308.0   -0.0257
   309.0   -0.0232     310.0   -0.0200     311.0   -0.0163     312.0   -0.0120     313.0   -0.0071     314.0   -0.0017     315.0    0.0042     316.0    0.0106
   317.0    0.0174     318.0    0.0246     319.0    0.0323     320.0    0.0403     321.0    0.0487     322.0    0.0573     323.0    0.0663     324.0    0.0755
...